<routes>
	<vType id="chevy_s10" accel="0.6" decel="1.3" sigma="0.4" length="5" minGap="2.5" maxSpeed="10" guiShape="passenger"/>

	<route id="top" edges="gneE0 gneE5 gneE6 gneE4" />
	<route id="middle" edges="gneE0 gneE2 gneE4" />
	<route id="bottom" edges="gneE0 gneE7 gneE8 gneE4"/>

</routes>
