<?xml version="1.0" encoding="UTF-8"?>

<!-- generated on Tue 24 Jul 2018 11:45:59 PM UTC by Netedit Version 0.30.0
<?xml version="1.0" encoding="UTF-8"?>

<configuration xmlns:xsi="http://www.w3.org/2001/XMLSchema-instance" xsi:noNamespaceSchemaLocation="http://sumo.dlr.de/xsd/netconvertConfiguration.xsd">

    <input>
        <sumo-net-file value="../data/3choices.net.xml"/>
    </input>

    <output>
        <output-file value="../data/3choices.net.xml"/>
    </output>

    <processing>
        <no-turnarounds value="true"/>
        <offset.disable-normalization value="true"/>
        <lefthand value="false"/>
        <junctions.corner-detail value="0"/>
        <rectangular-lane-cut value="false"/>
    </processing>

</configuration>
-->

<net version="0.27" xmlns:xsi="http://www.w3.org/2001/XMLSchema-instance" xsi:noNamespaceSchemaLocation="http://sumo.dlr.de/xsd/net_file.xsd">

    <location netOffset="0.00,0.00" convBoundary="0.00,-25.00,175.00,33.17" origBoundary="-10000000000.00,-10000000000.00,10000000000.00,10000000000.00" projParameter="!"/>

    <edge id=":gneJ0_0" function="internal">
        <lane id=":gneJ0_0_0" index="0" speed="13.89" length="4.82" shape="0.00,1.65 -1.24,0.83 -1.65,0.00 -1.24,-0.83 0.00,-1.65"/>
    </edge>
    <edge id=":gneJ1_0" function="internal">
        <lane id=":gneJ1_0_0" index="0" speed="13.89" length="8.04" shape="57.89,10.22 55.80,8.47 54.54,8.20 54.09,9.41 54.47,12.11"/>
    </edge>
    <edge id=":gneJ1_1" function="internal">
        <lane id=":gneJ1_1_0" index="0" speed="13.89" length="13.36" shape="57.89,10.22 54.04,6.47 51.06,3.79 48.96,2.19 47.73,1.65"/>
    </edge>
    <edge id=":gneJ1_2" function="internal">
        <lane id=":gneJ1_2_0" index="0" speed="13.89" length="23.92" shape="57.89,10.22 54.20,5.06 53.81,0.25 56.71,-4.20 62.92,-8.30"/>
    </edge>
    <edge id=":gneJ1_3" function="internal">
        <lane id=":gneJ1_3_0" index="0" speed="13.89" length="13.17" shape="57.89,10.22 53.90,5.03 53.80,1.32 56.30,-0.15"/>
    </edge>
    <edge id=":gneJ1_16" function="internal">
        <lane id=":gneJ1_16_0" index="0" speed="13.89" length="9.21" shape="56.30,-0.15 57.59,-0.91 65.27,-1.65"/>
    </edge>
    <edge id=":gneJ1_4" function="internal">
        <lane id=":gneJ1_4_0" index="0" speed="13.89" length="12.55" shape="65.27,1.65 60.72,2.04 58.36,3.21 58.20,5.16 60.22,7.89"/>
    </edge>
    <edge id=":gneJ1_5" function="internal">
        <lane id=":gneJ1_5_0" index="0" speed="13.89" length="18.10" shape="65.27,1.65 59.64,2.30 55.97,4.27 54.25,7.54 54.47,12.11"/>
    </edge>
    <edge id=":gneJ1_6" function="internal">
        <lane id=":gneJ1_6_0" index="0" speed="13.89" length="17.53" shape="65.27,1.65 47.73,1.65"/>
    </edge>
    <edge id=":gneJ1_7" function="internal">
        <lane id=":gneJ1_7_0" index="0" speed="13.89" length="10.67" shape="65.27,1.65 56.77,1.03 54.91,-0.05"/>
    </edge>
    <edge id=":gneJ1_17" function="internal">
        <lane id=":gneJ1_17_0" index="0" speed="13.89" length="13.81" shape="54.91,-0.05 53.55,-0.84 55.60,-3.95 62.92,-8.30"/>
    </edge>
    <edge id=":gneJ1_8" function="internal">
        <lane id=":gneJ1_8_0" index="0" speed="13.89" length="9.10" shape="64.39,-5.35 61.67,-3.73 60.91,-2.58 62.11,-1.88 65.27,-1.65"/>
    </edge>
    <edge id=":gneJ1_9" function="internal">
        <lane id=":gneJ1_9_0" index="0" speed="13.89" length="17.24" shape="64.39,-5.35 59.78,-2.35 57.55,0.86 57.69,4.27 60.22,7.89"/>
    </edge>
    <edge id=":gneJ1_10" function="internal">
        <lane id=":gneJ1_10_0" index="0" speed="13.89" length="21.86" shape="64.39,-5.35 59.09,-1.92 55.67,2.14 54.13,6.81 54.47,12.11"/>
    </edge>
    <edge id=":gneJ1_11" function="internal">
        <lane id=":gneJ1_11_0" index="0" speed="13.89" length="18.20" shape="64.39,-5.35 60.61,-3.31 56.26,-1.01 51.82,0.87 47.73,1.65"/>
    </edge>
    <edge id=":gneJ1_12" function="internal">
        <lane id=":gneJ1_12_0" index="0" speed="13.89" length="16.72" shape="47.73,-1.65 51.59,-2.38 55.52,-4.14 59.36,-6.32 62.92,-8.30"/>
    </edge>
    <edge id=":gneJ1_13" function="internal">
        <lane id=":gneJ1_13_0" index="0" speed="13.89" length="17.53" shape="47.73,-1.65 65.27,-1.65"/>
    </edge>
    <edge id=":gneJ1_14" function="internal">
        <lane id=":gneJ1_14_0" index="0" speed="13.89" length="3.98" shape="47.73,-1.65 49.62,-1.05 51.29,0.05"/>
    </edge>
    <edge id=":gneJ1_15" function="internal">
        <lane id=":gneJ1_15_0" index="0" speed="13.89" length="2.97" shape="47.73,-1.65 49.50,-0.79 50.05,0.05"/>
    </edge>
    <edge id=":gneJ1_18" function="internal">
        <lane id=":gneJ1_18_0" index="0" speed="13.89" length="11.90" shape="51.29,0.05 52.33,0.73 55.86,3.72 60.22,7.89"/>
    </edge>
    <edge id=":gneJ1_19" function="internal">
        <lane id=":gneJ1_19_0" index="0" speed="13.89" length="12.93" shape="50.05,0.05 51.21,1.79 52.87,6.09 54.47,12.11"/>
    </edge>
    <edge id=":gneJ10_0" function="internal">
        <lane id=":gneJ10_0_0" index="0" speed="13.89" length="2.01" shape="57.91,27.09 58.09,27.59 58.39,27.96 58.79,28.21 59.31,28.33"/>
    </edge>
    <edge id=":gneJ13_0" function="internal">
        <lane id=":gneJ13_0_0" index="0" speed="13.89" length="1.40" shape="89.98,31.37 90.34,31.37 90.67,31.30 90.98,31.15 91.26,30.92"/>
    </edge>
    <edge id=":gneJ3_0" function="internal">
        <lane id=":gneJ3_0_0" index="0" speed="13.89" length="23.96" shape="127.85,1.65 122.96,2.85 116.75,5.65 110.64,8.87 106.05,11.32"/>
    </edge>
    <edge id=":gneJ3_1" function="internal">
        <lane id=":gneJ3_1_0" index="0" speed="13.89" length="18.11" shape="127.85,1.65 109.73,1.65"/>
    </edge>
    <edge id=":gneJ3_2" function="internal">
        <lane id=":gneJ3_2_0" index="0" speed="13.89" length="4.66" shape="127.85,1.65 125.86,1.21 123.56,-0.05"/>
    </edge>
    <edge id=":gneJ3_16" function="internal">
        <lane id=":gneJ3_16_0" index="0" speed="13.89" length="8.33" shape="123.56,-0.05 123.43,-0.12 120.55,-2.34 117.22,-5.44"/>
    </edge>
    <edge id=":gneJ3_3" function="internal">
        <lane id=":gneJ3_3_0" index="0" speed="13.89" length="10.43" shape="119.56,-7.78 122.37,-5.10 124.69,-3.18 126.52,-2.03 127.85,-1.65"/>
    </edge>
    <edge id=":gneJ3_4" function="internal">
        <lane id=":gneJ3_4_0" index="0" speed="13.89" length="10.95" shape="119.56,-7.78 121.80,-3.50 120.29,1.11 119.37,1.98"/>
    </edge>
    <edge id=":gneJ3_5" function="internal">
        <lane id=":gneJ3_5_0" index="0" speed="13.89" length="10.25" shape="119.56,-7.78 122.48,-3.65 121.81,-0.71 119.80,0.13"/>
    </edge>
    <edge id=":gneJ3_17" function="internal">
        <lane id=":gneJ3_17_0" index="0" speed="13.89" length="16.37" shape="119.37,1.98 115.04,6.05 106.05,11.32"/>
    </edge>
    <edge id=":gneJ3_18" function="internal">
        <lane id=":gneJ3_18_0" index="0" speed="13.89" length="10.28" shape="119.80,0.13 117.57,1.06 109.73,1.65"/>
    </edge>
    <edge id=":gneJ3_6" function="internal">
        <lane id=":gneJ3_6_0" index="0" speed="13.89" length="11.03" shape="109.73,-1.65 114.43,-1.89 117.25,-2.60 118.18,-3.78 117.22,-5.44"/>
    </edge>
    <edge id=":gneJ3_7" function="internal">
        <lane id=":gneJ3_7_0" index="0" speed="13.89" length="18.11" shape="109.73,-1.65 127.85,-1.65"/>
    </edge>
    <edge id=":gneJ3_8" function="internal">
        <lane id=":gneJ3_8_0" index="0" speed="13.89" length="9.33" shape="109.73,-1.65 117.85,-0.84 118.61,0.05"/>
    </edge>
    <edge id=":gneJ3_19" function="internal">
        <lane id=":gneJ3_19_0" index="0" speed="13.89" length="19.15" shape="118.61,0.05 119.94,1.59 116.01,5.65 106.05,11.32"/>
    </edge>
    <edge id=":gneJ3_9" function="internal">
        <lane id=":gneJ3_9_0" index="0" speed="13.89" length="13.57" shape="104.57,8.37 109.93,5.43 112.58,3.33 112.51,2.07 109.73,1.65"/>
    </edge>
    <edge id=":gneJ3_10" function="internal">
        <lane id=":gneJ3_10_0" index="0" speed="13.89" length="20.98" shape="104.57,8.37 111.98,4.20 116.56,0.51 118.30,-2.71 117.22,-5.44"/>
    </edge>
    <edge id=":gneJ3_11" function="internal">
        <lane id=":gneJ3_11_0" index="0" speed="13.89" length="25.44" shape="104.57,8.37 109.39,5.86 116.01,2.52 122.73,-0.40 127.85,-1.65"/>
    </edge>
    <edge id=":gneJ3_12" function="internal">
        <lane id=":gneJ3_12_0" index="0" speed="13.89" length="12.17" shape="108.16,14.27 111.12,11.04 111.76,9.47 110.07,9.56 106.05,11.32"/>
    </edge>
    <edge id=":gneJ3_13" function="internal">
        <lane id=":gneJ3_13_0" index="0" speed="13.89" length="18.57" shape="108.16,14.27 113.06,8.75 114.96,4.81 113.85,2.44 109.73,1.65"/>
    </edge>
    <edge id=":gneJ3_14" function="internal">
        <lane id=":gneJ3_14_0" index="0" speed="13.89" length="23.50" shape="108.16,14.27 114.16,7.69 117.67,2.20 118.70,-2.17 117.22,-5.44"/>
    </edge>
    <edge id=":gneJ3_15" function="internal">
        <lane id=":gneJ3_15_0" index="0" speed="13.89" length="23.17" shape="108.16,14.27 112.03,10.31 117.46,5.00 123.16,0.34 125.62,-0.70"/>
    </edge>
    <edge id=":gneJ3_20" function="internal">
        <lane id=":gneJ3_20_0" index="0" speed="13.89" length="2.41" shape="125.62,-0.70 127.85,-1.65"/>
    </edge>
    <edge id=":gneJ5_0" function="internal">
        <lane id=":gneJ5_0_0" index="0" speed="13.89" length="4.82" shape="175.00,-1.65 176.24,-0.83 176.65,0.00 176.24,0.83 175.00,1.65"/>
    </edge>
    <edge id=":gneJ6_0" function="internal">
        <lane id=":gneJ6_0_0" index="0" speed="13.89" length="6.17" shape="77.83,25.43 76.29,25.96 74.84,25.99 73.47,25.50 72.18,24.51"/>
    </edge>
    <edge id=":gneJ6_1" function="internal">
        <lane id=":gneJ6_1_0" index="0" speed="13.89" length="2.01" shape="74.51,22.18 74.93,22.50 75.38,22.66 75.86,22.65 76.36,22.48"/>
    </edge>
    <edge id=":gneJ9_0" function="internal">
        <lane id=":gneJ9_0_0" index="0" speed="13.89" length="2.01" shape="100.49,-22.18 100.07,-22.50 99.62,-22.66 99.14,-22.65 98.64,-22.48"/>
    </edge>
    <edge id=":gneJ9_1" function="internal">
        <lane id=":gneJ9_1_0" index="0" speed="13.89" length="6.17" shape="97.17,-25.43 98.71,-25.96 100.16,-25.99 101.53,-25.50 102.82,-24.51"/>
    </edge>

    <edge id="-gneE0" from="gneJ1" to="gneJ0" priority="1">
        <lane id="-gneE0_0" index="0" speed="13.89" length="47.73" shape="47.73,1.65 0.00,1.65"/>
    </edge>
    <edge id="-gneE2" from="gneJ3" to="gneJ1" priority="1">
        <lane id="-gneE2_0" index="0" speed="13.89" length="44.47" shape="109.73,1.65 65.27,1.65"/>
    </edge>
    <edge id="-gneE4" from="gneJ5" to="gneJ3" priority="1">
        <lane id="-gneE4_0" index="0" speed="13.89" length="47.15" shape="175.00,1.65 127.85,1.65"/>
    </edge>
    <edge id="-gneE5" from="gneJ6" to="gneJ1" priority="1">
        <lane id="-gneE5_0" index="0" speed="13.89" length="20.21" shape="72.18,24.51 57.89,10.22"/>
    </edge>
    <edge id="-gneE6" from="gneJ3" to="gneJ6" priority="1">
        <lane id="-gneE6_0" index="0" speed="13.89" length="31.54" shape="106.05,11.32 77.83,25.43"/>
    </edge>
    <edge id="-gneE7" from="gneJ9" to="gneJ1" priority="1">
        <lane id="-gneE7_0" index="0" speed="13.89" length="38.29" shape="98.64,-22.48 64.39,-5.35"/>
    </edge>
    <edge id="-gneE8" from="gneJ3" to="gneJ9" priority="1">
        <lane id="-gneE8_0" index="0" speed="13.89" length="23.67" shape="117.22,-5.44 100.49,-22.18"/>
    </edge>
    <edge id="gneE0" from="gneJ0" to="gneJ1" priority="1">
        <lane id="gneE0_0" index="0" speed="13.89" length="47.73" shape="0.00,-1.65 47.73,-1.65"/>
    </edge>
    <edge id="gneE11" from="gneJ10" to="gneJ13" priority="1">
        <lane id="gneE11_0" index="0" speed="13.89" length="30.82" shape="59.31,28.33 89.98,31.37"/>
    </edge>
    <edge id="gneE12" from="gneJ13" to="gneJ3" priority="1">
        <lane id="gneE12_0" index="0" speed="13.89" length="23.72" shape="91.26,30.92 108.16,14.27"/>
    </edge>
    <edge id="gneE2" from="gneJ1" to="gneJ3" priority="1">
        <lane id="gneE2_0" index="0" speed="13.89" length="44.47" shape="65.27,-1.65 109.73,-1.65"/>
    </edge>
    <edge id="gneE4" from="gneJ3" to="gneJ5" priority="1">
        <lane id="gneE4_0" index="0" speed="13.89" length="47.15" shape="127.85,-1.65 175.00,-1.65"/>
    </edge>
    <edge id="gneE5" from="gneJ1" to="gneJ6" priority="1">
        <lane id="gneE5_0" index="0" speed="13.89" length="20.21" shape="60.22,7.89 74.51,22.18"/>
    </edge>
    <edge id="gneE6" from="gneJ6" to="gneJ3" priority="1">
        <lane id="gneE6_0" index="0" speed="13.89" length="31.54" shape="76.36,22.48 104.57,8.37"/>
    </edge>
    <edge id="gneE7" from="gneJ1" to="gneJ9" priority="1">
        <lane id="gneE7_0" index="0" speed="13.89" length="38.29" shape="62.92,-8.30 97.17,-25.43"/>
    </edge>
    <edge id="gneE8" from="gneJ9" to="gneJ3" priority="1">
        <lane id="gneE8_0" index="0" speed="13.89" length="23.67" shape="102.82,-24.51 119.56,-7.78"/>
    </edge>
    <edge id="gneE9" from="gneJ1" to="gneJ10" priority="1">
        <lane id="gneE9_0" index="0" speed="13.89" length="15.37" shape="54.47,12.11 57.91,27.09"/>
    </edge>

    <tlLogic id="gneJ1" type="static" programID="0" offset="0">
        <phase duration="31" state="rrrrGGGgrrrrGGgg"/>
        <phase duration="4" state="rrrryyygrrrryygg"/>
        <phase duration="6" state="rrrrrrrGrrrrrrGG"/>
        <phase duration="4" state="rrrrrrryrrrrrryy"/>
        <phase duration="31" state="GGGgrrrrGGggrrrr"/>
        <phase duration="4" state="yyygrrrryyggrrrr"/>
        <phase duration="6" state="rrrGrrrrrrGGrrrr"/>
        <phase duration="4" state="rrryrrrrrryyrrrr"/>
    </tlLogic>
    <tlLogic id="gneJ3" type="static" programID="0" offset="0">
        <phase duration="18" state="GGgrrrGGgrrrrrrr"/>
        <phase duration="4" state="yygrrryygrrrrrrr"/>
        <phase duration="6" state="rrGrrrrrGrrrrrrr"/>
        <phase duration="4" state="rryrrrrryrrrrrrr"/>
        <phase duration="20" state="rrrGggrrrrrrGGGg"/>
        <phase duration="4" state="rrryggrrrrrryyyg"/>
        <phase duration="6" state="rrrrGGrrrrrrrrrG"/>
        <phase duration="4" state="rrrryyrrrrrrrrry"/>
        <phase duration="20" state="GrrrrrrrrGGGrrrr"/>
        <phase duration="4" state="yrrrrrrrryyyrrrr"/>
    </tlLogic>

    <junction id="gneJ0" type="priority" x="0.00" y="0.00" incLanes="-gneE0_0" intLanes=":gneJ0_0_0" shape="0.00,-0.05 0.00,3.25 0.00,0.05">
        <request index="0" response="0" foes="0" cont="0"/>
    </junction>
    <junction id="gneJ1" type="traffic_light" x="50.00" y="0.00" incLanes="-gneE5_0 -gneE2_0 -gneE7_0 gneE0_0" intLanes=":gneJ1_0_0 :gneJ1_1_0 :gneJ1_2_0 :gneJ1_16_0 :gneJ1_4_0 :gneJ1_5_0 :gneJ1_6_0 :gneJ1_17_0 :gneJ1_8_0 :gneJ1_9_0 :gneJ1_10_0 :gneJ1_11_0 :gneJ1_12_0 :gneJ1_13_0 :gneJ1_18_0 :gneJ1_19_0" shape="52.91,12.47 56.03,11.75 56.76,11.35 61.35,6.76 65.27,3.25 65.27,-3.25 65.11,-3.92 62.20,-9.73 47.73,-3.25 47.73,3.25">
        <request index="0" response="1000000000100000" foes="1000010000100000" cont="0"/>
        <request index="1" response="1000000001100000" foes="1000110001100000" cont="0"/>
        <request index="2" response="0111000011100000" foes="0111110011100000" cont="0"/>
        <request index="3" response="0110001111100000" foes="0110001111100000" cont="1"/>
        <request index="4" response="0000000000000000" foes="0100001000000000" cont="0"/>
        <request index="5" response="0000000000000000" foes="1100011000001111" cont="0"/>
        <request index="6" response="0000000000000000" foes="1100111000001110" cont="0"/>
        <request index="7" response="0011000000000000" foes="0011111000001100" cont="1"/>
        <request index="8" response="0010000000000000" foes="0010000000001000" cont="0"/>
        <request index="9" response="0110000011110000" foes="0110000011111000" cont="0"/>
        <request index="10" response="1110000011100111" foes="1110000011100111" cont="0"/>
        <request index="11" response="1110000011000110" foes="1110000011000110" cont="0"/>
        <request index="12" response="0000000000000000" foes="0000000010000100" cont="0"/>
        <request index="13" response="0000000000000000" foes="0000111110001100" cont="0"/>
        <request index="14" response="0000000001110000" foes="0000111001111100" cont="1"/>
        <request index="15" response="0000000001100000" foes="0000110001100011" cont="1"/>
    </junction>
    <junction id="gneJ10" type="priority" x="56.82" y="29.74" incLanes="gneE9_0" intLanes=":gneJ10_0_0" shape="59.15,29.92 59.47,26.74 56.35,27.45">
        <request index="0" response="0" foes="0" cont="0"/>
    </junction>
    <junction id="gneJ13" type="priority" x="91.33" y="33.17" incLanes="gneE11_0" intLanes=":gneJ13_0_0" shape="92.38,32.06 90.14,29.78 89.82,32.97">
        <request index="0" response="0" foes="0" cont="0"/>
    </junction>
    <junction id="gneJ3" type="traffic_light" x="125.00" y="0.00" incLanes="-gneE4_0 gneE8_0 gneE2_0 gneE6_0 gneE12_0" intLanes=":gneJ3_0_0 :gneJ3_1_0 :gneJ3_16_0 :gneJ3_3_0 :gneJ3_17_0 :gneJ3_18_0 :gneJ3_6_0 :gneJ3_7_0 :gneJ3_19_0 :gneJ3_9_0 :gneJ3_10_0 :gneJ3_11_0 :gneJ3_12_0 :gneJ3_13_0 :gneJ3_14_0 :gneJ3_20_0" shape="127.85,3.25 127.85,-3.25 120.69,-8.91 116.09,-4.31 109.73,-3.25 109.73,3.25 103.86,6.94 106.76,12.75 107.03,13.13 109.28,15.41">
        <request index="0" response="0000000000000000" foes="1111000100010000" cont="0"/>
        <request index="1" response="0000000000000000" foes="1110111100110000" cont="0"/>
        <request index="2" response="0000000011000000" foes="1100110011110000" cont="1"/>
        <request index="3" response="0000000010000000" foes="1000100010000000" cont="0"/>
        <request index="4" response="0111000110000111" foes="0111100110000111" cont="1"/>
        <request index="5" response="0110011110000110" foes="0110011110000110" cont="1"/>
        <request index="6" response="0000000000000000" foes="0100010000000100" cont="0"/>
        <request index="7" response="0000000000000000" foes="1100110000111100" cont="0"/>
        <request index="8" response="0000000000000011" foes="0011110000110011" cont="1"/>
        <request index="9" response="0000000000000010" foes="0010000000100010" cont="0"/>
        <request index="10" response="0000000111000110" foes="0110000111100110" cont="0"/>
        <request index="11" response="0000000110011110" foes="1110000110011110" cont="0"/>
        <request index="12" response="0000000100000001" foes="0000000100010001" cont="0"/>
        <request index="13" response="0000111100000011" foes="0000111100110011" cont="0"/>
        <request index="14" response="0000110011000111" foes="0000110011110111" cont="0"/>
        <request index="15" response="0000100010001111" foes="0000100010001111" cont="1"/>
    </junction>
    <junction id="gneJ5" type="priority" x="175.00" y="0.00" incLanes="gneE4_0" intLanes=":gneJ5_0_0" shape="175.00,0.05 175.00,-3.25 175.00,-0.05">
        <request index="0" response="0" foes="0" cont="0"/>
    </junction>
    <junction id="gneJ6" type="priority" x="75.00" y="25.00" incLanes="-gneE6_0 gneE5_0" intLanes=":gneJ6_0_0 :gneJ6_1_0" shape="78.55,26.86 75.64,21.05 71.05,25.64">
        <request index="0" response="00" foes="00" cont="0"/>
        <request index="1" response="00" foes="00" cont="0"/>
    </junction>
    <junction id="gneJ9" type="priority" x="100.00" y="-25.00" incLanes="-gneE8_0 gneE7_0" intLanes=":gneJ9_0_0 :gneJ9_1_0" shape="99.36,-21.05 103.95,-25.64 96.45,-26.86">
        <request index="0" response="00" foes="00" cont="0"/>
        <request index="1" response="00" foes="00" cont="0"/>
    </junction>

    <junction id=":gneJ1_16_0" type="internal" x="56.30" y="-0.15" incLanes=":gneJ1_3_0 -gneE7_0" intLanes=":gneJ1_5_0 :gneJ1_6_0 :gneJ1_7_0 :gneJ1_8_0 :gneJ1_9_0 :gneJ1_13_0 :gneJ1_14_0"/>
    <junction id=":gneJ1_17_0" type="internal" x="54.91" y="-0.05" incLanes=":gneJ1_7_0 gneE0_0" intLanes=":gneJ1_2_0 :gneJ1_3_0 :gneJ1_9_0 :gneJ1_10_0 :gneJ1_11_0 :gneJ1_12_0 :gneJ1_13_0"/>
    <junction id=":gneJ1_18_0" type="internal" x="51.29" y="0.05" incLanes=":gneJ1_14_0 -gneE2_0" intLanes=":gneJ1_2_0 :gneJ1_3_0 :gneJ1_4_0 :gneJ1_5_0 :gneJ1_6_0 :gneJ1_9_0 :gneJ1_10_0 :gneJ1_11_0"/>
    <junction id=":gneJ1_19_0" type="internal" x="50.05" y="0.05" incLanes=":gneJ1_15_0 -gneE2_0" intLanes=":gneJ1_0_0 :gneJ1_1_0 :gneJ1_5_0 :gneJ1_6_0 :gneJ1_10_0 :gneJ1_11_0"/>
    <junction id=":gneJ3_16_0" type="internal" x="123.56" y="-0.05" incLanes=":gneJ3_2_0 gneE2_0" intLanes=":gneJ3_4_0 :gneJ3_5_0 :gneJ3_6_0 :gneJ3_7_0 :gneJ3_10_0 :gneJ3_11_0 :gneJ3_14_0 :gneJ3_15_0"/>
    <junction id=":gneJ3_17_0" type="internal" x="119.37" y="1.98" incLanes=":gneJ3_4_0 gneE12_0" intLanes=":gneJ3_0_0 :gneJ3_1_0 :gneJ3_2_0 :gneJ3_7_0 :gneJ3_8_0 :gneJ3_11_0 :gneJ3_12_0 :gneJ3_13_0 :gneJ3_14_0"/>
    <junction id=":gneJ3_18_0" type="internal" x="119.80" y="0.13" incLanes=":gneJ3_5_0 gneE12_0" intLanes=":gneJ3_1_0 :gneJ3_2_0 :gneJ3_7_0 :gneJ3_8_0 :gneJ3_9_0 :gneJ3_10_0 :gneJ3_13_0 :gneJ3_14_0"/>
    <junction id=":gneJ3_19_0" type="internal" x="118.61" y="0.05" incLanes=":gneJ3_8_0 -gneE4_0" intLanes=":gneJ3_0_0 :gneJ3_1_0 :gneJ3_4_0 :gneJ3_5_0 :gneJ3_10_0 :gneJ3_11_0 :gneJ3_12_0 :gneJ3_13_0"/>
    <junction id=":gneJ3_20_0" type="internal" x="125.62" y="-0.70" incLanes=":gneJ3_15_0 gneE8_0" intLanes=":gneJ3_0_0 :gneJ3_1_0 :gneJ3_2_0 :gneJ3_3_0 :gneJ3_7_0 :gneJ3_11_0"/>

    <connection from="-gneE0" to="gneE0" fromLane="0" toLane="0" via=":gneJ0_0_0" dir="t" state="M"/>
    <connection from="-gneE2" to="gneE5" fromLane="0" toLane="0" via=":gneJ1_4_0" tl="gneJ1" linkIndex="4" dir="r" state="o"/>
    <connection from="-gneE2" to="gneE9" fromLane="0" toLane="0" via=":gneJ1_5_0" tl="gneJ1" linkIndex="5" dir="R" state="o"/>
    <connection from="-gneE2" to="-gneE0" fromLane="0" toLane="0" via=":gneJ1_6_0" tl="gneJ1" linkIndex="6" dir="s" state="o"/>
    <connection from="-gneE2" to="gneE7" fromLane="0" toLane="0" via=":gneJ1_7_0" tl="gneJ1" linkIndex="7" dir="l" state="o"/>
    <connection from="-gneE4" to="-gneE6" fromLane="0" toLane="0" via=":gneJ3_0_0" tl="gneJ3" linkIndex="0" dir="s" state="o"/>
    <connection from="-gneE4" to="-gneE2" fromLane="0" toLane="0" via=":gneJ3_1_0" tl="gneJ3" linkIndex="1" dir="s" state="o"/>
    <connection from="-gneE4" to="-gneE8" fromLane="0" toLane="0" via=":gneJ3_2_0" tl="gneJ3" linkIndex="2" dir="l" state="o"/>
    <connection from="-gneE5" to="gneE9" fromLane="0" toLane="0" via=":gneJ1_0_0" tl="gneJ1" linkIndex="0" dir="r" state="o"/>
    <connection from="-gneE5" to="-gneE0" fromLane="0" toLane="0" via=":gneJ1_1_0" tl="gneJ1" linkIndex="1" dir="R" state="o"/>
    <connection from="-gneE5" to="gneE7" fromLane="0" toLane="0" via=":gneJ1_2_0" tl="gneJ1" linkIndex="2" dir="L" state="o"/>
    <connection from="-gneE5" to="gneE2" fromLane="0" toLane="0" via=":gneJ1_3_0" tl="gneJ1" linkIndex="3" dir="l" state="o"/>
    <connection from="-gneE6" to="-gneE5" fromLane="0" toLane="0" via=":gneJ6_0_0" dir="l" state="M"/>
    <connection from="-gneE7" to="gneE2" fromLane="0" toLane="0" via=":gneJ1_8_0" tl="gneJ1" linkIndex="8" dir="r" state="o"/>
    <connection from="-gneE7" to="gneE5" fromLane="0" toLane="0" via=":gneJ1_9_0" tl="gneJ1" linkIndex="9" dir="R" state="o"/>
    <connection from="-gneE7" to="gneE9" fromLane="0" toLane="0" via=":gneJ1_10_0" tl="gneJ1" linkIndex="10" dir="R" state="o"/>
    <connection from="-gneE7" to="-gneE0" fromLane="0" toLane="0" via=":gneJ1_11_0" tl="gneJ1" linkIndex="11" dir="s" state="o"/>
    <connection from="-gneE8" to="-gneE7" fromLane="0" toLane="0" via=":gneJ9_0_0" dir="r" state="M"/>
    <connection from="gneE0" to="gneE7" fromLane="0" toLane="0" via=":gneJ1_12_0" tl="gneJ1" linkIndex="12" dir="s" state="o"/>
    <connection from="gneE0" to="gneE2" fromLane="0" toLane="0" via=":gneJ1_13_0" tl="gneJ1" linkIndex="13" dir="s" state="o"/>
    <connection from="gneE0" to="gneE5" fromLane="0" toLane="0" via=":gneJ1_14_0" tl="gneJ1" linkIndex="14" dir="L" state="o"/>
    <connection from="gneE0" to="gneE9" fromLane="0" toLane="0" via=":gneJ1_15_0" tl="gneJ1" linkIndex="15" dir="l" state="o"/>
    <connection from="gneE11" to="gneE12" fromLane="0" toLane="0" via=":gneJ13_0_0" dir="r" state="M"/>
    <connection from="gneE12" to="-gneE6" fromLane="0" toLane="0" via=":gneJ3_12_0" tl="gneJ3" linkIndex="12" dir="r" state="o"/>
    <connection from="gneE12" to="-gneE2" fromLane="0" toLane="0" via=":gneJ3_13_0" tl="gneJ3" linkIndex="13" dir="R" state="o"/>
    <connection from="gneE12" to="-gneE8" fromLane="0" toLane="0" via=":gneJ3_14_0" tl="gneJ3" linkIndex="14" dir="R" state="o"/>
    <connection from="gneE12" to="gneE4" fromLane="0" toLane="0" via=":gneJ3_15_0" tl="gneJ3" linkIndex="15" dir="l" state="o"/>
    <connection from="gneE2" to="-gneE8" fromLane="0" toLane="0" via=":gneJ3_6_0" tl="gneJ3" linkIndex="6" dir="r" state="o"/>
    <connection from="gneE2" to="gneE4" fromLane="0" toLane="0" via=":gneJ3_7_0" tl="gneJ3" linkIndex="7" dir="s" state="o"/>
    <connection from="gneE2" to="-gneE6" fromLane="0" toLane="0" via=":gneJ3_8_0" tl="gneJ3" linkIndex="8" dir="l" state="o"/>
    <connection from="gneE4" to="-gneE4" fromLane="0" toLane="0" via=":gneJ5_0_0" dir="t" state="M"/>
    <connection from="gneE5" to="gneE6" fromLane="0" toLane="0" via=":gneJ6_1_0" dir="r" state="M"/>
    <connection from="gneE6" to="-gneE2" fromLane="0" toLane="0" via=":gneJ3_9_0" tl="gneJ3" linkIndex="9" dir="r" state="o"/>
    <connection from="gneE6" to="-gneE8" fromLane="0" toLane="0" via=":gneJ3_10_0" tl="gneJ3" linkIndex="10" dir="R" state="o"/>
    <connection from="gneE6" to="gneE4" fromLane="0" toLane="0" via=":gneJ3_11_0" tl="gneJ3" linkIndex="11" dir="s" state="o"/>
    <connection from="gneE7" to="gneE8" fromLane="0" toLane="0" via=":gneJ9_1_0" dir="l" state="M"/>
    <connection from="gneE8" to="gneE4" fromLane="0" toLane="0" via=":gneJ3_3_0" tl="gneJ3" linkIndex="3" dir="r" state="o"/>
    <connection from="gneE8" to="-gneE6" fromLane="0" toLane="0" via=":gneJ3_4_0" tl="gneJ3" linkIndex="4" dir="L" state="o"/>
    <connection from="gneE8" to="-gneE2" fromLane="0" toLane="0" via=":gneJ3_5_0" tl="gneJ3" linkIndex="5" dir="l" state="o"/>
    <connection from="gneE9" to="gneE11" fromLane="0" toLane="0" via=":gneJ10_0_0" dir="r" state="M"/>

    <connection from=":gneJ0_0" to="gneE0" fromLane="0" toLane="0" dir="s" state="M"/>
    <connection from=":gneJ1_0" to="gneE9" fromLane="0" toLane="0" dir="s" state="M"/>
    <connection from=":gneJ1_1" to="-gneE0" fromLane="0" toLane="0" dir="s" state="M"/>
    <connection from=":gneJ1_2" to="gneE7" fromLane="0" toLane="0" dir="s" state="M"/>
    <connection from=":gneJ1_3" to="gneE2" fromLane="0" toLane="0" via=":gneJ1_16_0" dir="s" state="m"/>
    <connection from=":gneJ1_16" to="gneE2" fromLane="0" toLane="0" dir="s" state="M"/>
    <connection from=":gneJ1_4" to="gneE5" fromLane="0" toLane="0" dir="s" state="M"/>
    <connection from=":gneJ1_5" to="gneE9" fromLane="0" toLane="0" dir="s" state="M"/>
    <connection from=":gneJ1_6" to="-gneE0" fromLane="0" toLane="0" dir="s" state="M"/>
    <connection from=":gneJ1_7" to="gneE7" fromLane="0" toLane="0" via=":gneJ1_17_0" dir="s" state="m"/>
    <connection from=":gneJ1_17" to="gneE7" fromLane="0" toLane="0" dir="s" state="M"/>
    <connection from=":gneJ1_8" to="gneE2" fromLane="0" toLane="0" dir="s" state="M"/>
    <connection from=":gneJ1_9" to="gneE5" fromLane="0" toLane="0" dir="s" state="M"/>
    <connection from=":gneJ1_10" to="gneE9" fromLane="0" toLane="0" dir="s" state="M"/>
    <connection from=":gneJ1_11" to="-gneE0" fromLane="0" toLane="0" dir="s" state="M"/>
    <connection from=":gneJ1_12" to="gneE7" fromLane="0" toLane="0" dir="s" state="M"/>
    <connection from=":gneJ1_13" to="gneE2" fromLane="0" toLane="0" dir="s" state="M"/>
    <connection from=":gneJ1_14" to="gneE5" fromLane="0" toLane="0" via=":gneJ1_18_0" dir="s" state="m"/>
    <connection from=":gneJ1_18" to="gneE5" fromLane="0" toLane="0" dir="s" state="M"/>
    <connection from=":gneJ1_15" to="gneE9" fromLane="0" toLane="0" via=":gneJ1_19_0" dir="s" state="m"/>
    <connection from=":gneJ1_19" to="gneE9" fromLane="0" toLane="0" dir="s" state="M"/>
    <connection from=":gneJ10_0" to="gneE11" fromLane="0" toLane="0" dir="s" state="M"/>
    <connection from=":gneJ13_0" to="gneE12" fromLane="0" toLane="0" dir="s" state="M"/>
    <connection from=":gneJ3_0" to="-gneE6" fromLane="0" toLane="0" dir="s" state="M"/>
    <connection from=":gneJ3_1" to="-gneE2" fromLane="0" toLane="0" dir="s" state="M"/>
    <connection from=":gneJ3_2" to="-gneE8" fromLane="0" toLane="0" via=":gneJ3_16_0" dir="s" state="m"/>
    <connection from=":gneJ3_16" to="-gneE8" fromLane="0" toLane="0" dir="s" state="M"/>
    <connection from=":gneJ3_3" to="gneE4" fromLane="0" toLane="0" dir="s" state="M"/>
    <connection from=":gneJ3_4" to="-gneE6" fromLane="0" toLane="0" via=":gneJ3_17_0" dir="s" state="m"/>
    <connection from=":gneJ3_17" to="-gneE6" fromLane="0" toLane="0" dir="s" state="M"/>
    <connection from=":gneJ3_5" to="-gneE2" fromLane="0" toLane="0" via=":gneJ3_18_0" dir="s" state="m"/>
    <connection from=":gneJ3_18" to="-gneE2" fromLane="0" toLane="0" dir="s" state="M"/>
    <connection from=":gneJ3_6" to="-gneE8" fromLane="0" toLane="0" dir="s" state="M"/>
    <connection from=":gneJ3_7" to="gneE4" fromLane="0" toLane="0" dir="s" state="M"/>
    <connection from=":gneJ3_8" to="-gneE6" fromLane="0" toLane="0" via=":gneJ3_19_0" dir="s" state="m"/>
    <connection from=":gneJ3_19" to="-gneE6" fromLane="0" toLane="0" dir="s" state="M"/>
    <connection from=":gneJ3_9" to="-gneE2" fromLane="0" toLane="0" dir="s" state="M"/>
    <connection from=":gneJ3_10" to="-gneE8" fromLane="0" toLane="0" dir="s" state="M"/>
    <connection from=":gneJ3_11" to="gneE4" fromLane="0" toLane="0" dir="s" state="M"/>
    <connection from=":gneJ3_12" to="-gneE6" fromLane="0" toLane="0" dir="s" state="M"/>